13

C         -1.33536       -0.25489       -0.25017
C         -0.58175        0.72811        0.64278
O          0.81733        0.78724        0.30172
C          1.65131       -0.08287        0.89410
O          1.24157       -0.87314        1.79019
O          2.85394       -0.04892        0.51235
O         -2.67047       -0.27678        0.06054
Li         3.05794       -1.41701        1.80109
H         -0.85843       -1.24690       -0.13163
H         -1.15391        0.04565       -1.30092
H         -0.69759        0.45832        1.69371
H         -0.95956        1.74162        0.48573
Li        -4.25565       -0.29273        0.47246
